/*--------------------------------*- C++ -*----------------------------------*
| =========                 |                                                |
| \      /  F ield         | OpenFOAM: The Open Source CFD Toolbox           |
|  \    /   O peration     | Version:  1.6-ext                               |
|   \  /    A nd           | Web:      http://www.OpenFOAM.org               |
|    \/     M anipulation  |                                                 |
\*---------------------------------------------------------------------------*/
FoamFile
{
    version     2.0;
    format      ascii;
    class       dictionary;
    object      decomposeParDict;
}
// * * * * * * * * * * * * * * * * * * * * * * * * * * * * * * * * * * * * * //

 numberOfSubdomains 12;

//method          simple;
//method          hierarchical;
//method          metis;
method          scotch;


globalFaceZones ();

simpleCoeffs
{
    n               (2 2 1);
    delta           0.001;
}

hierarchicalCoeffs
{
     n               (1 1 20);
    delta           0.01;
    order           xyz;
processorWeights
();
}

metisCoeffs
{
} 

scotchCoeffs
{
} 

manualCoeffs
{
    dataFile        "";
}

distributed     no;

roots
(
);

// ************************************************************************* // 
