/*--------------------------------*- C++ -*----------------------------------*\
| =========                 |                                                 |
| \\      /  F ield         | OpenFOAM: The Open Source CFD Toolbox           |
|  \\    /   O peration     | Version:  2312                                  |
|   \\  /    A nd           | Website:  www.openfoam.com                      |
|    \\/     M anipulation  |                                                 |
\*---------------------------------------------------------------------------*/
FoamFile
{
    version     2.0;
    format      ascii;
    arch        "LSB;label=32;scalar=64";
    class       featureEdgeMesh;
    location    "constant/triSurface";
    object      cylinder.eMesh;
}
// * * * * * * * * * * * * * * * * * * * * * * * * * * * * * * * * * * * * * //


// points:

64
(
(0.5 0.6 1)
(0.519509 0.598079 1)
(0.519509 0.598079 0)
(0.5 0.6 0)
(0.538268 0.592388 1)
(0.538268 0.592388 0)
(0.555557 0.583147 1)
(0.555557 0.583147 0)
(0.570711 0.570711 1)
(0.570711 0.570711 0)
(0.583147 0.555557 1)
(0.583147 0.555557 0)
(0.592388 0.538268 1)
(0.592388 0.538268 0)
(0.598079 0.519509 1)
(0.598079 0.519509 0)
(0.6 0.5 1)
(0.6 0.5 0)
(0.598079 0.480491 1)
(0.598079 0.480491 0)
(0.592388 0.461732 1)
(0.592388 0.461732 0)
(0.583147 0.444443 1)
(0.583147 0.444443 0)
(0.570711 0.429289 1)
(0.570711 0.429289 0)
(0.555557 0.416853 1)
(0.555557 0.416853 0)
(0.538268 0.407612 1)
(0.538268 0.407612 0)
(0.519509 0.401921 1)
(0.519509 0.401921 0)
(0.5 0.4 1)
(0.5 0.4 0)
(0.480491 0.401921 1)
(0.480491 0.401921 0)
(0.461732 0.407612 1)
(0.461732 0.407612 0)
(0.444443 0.416853 1)
(0.444443 0.416853 0)
(0.429289 0.429289 1)
(0.429289 0.429289 0)
(0.416853 0.444443 1)
(0.416853 0.444443 0)
(0.407612 0.461732 1)
(0.407612 0.461732 0)
(0.401921 0.480491 1)
(0.401921 0.480491 0)
(0.4 0.5 1)
(0.4 0.5 0)
(0.401921 0.519509 1)
(0.401921 0.519509 0)
(0.407612 0.538268 1)
(0.407612 0.538268 0)
(0.416853 0.555557 1)
(0.416853 0.555557 0)
(0.429289 0.570711 1)
(0.429289 0.570711 0)
(0.444443 0.583147 1)
(0.444443 0.583147 0)
(0.461732 0.592388 1)
(0.461732 0.592388 0)
(0.480491 0.598079 1)
(0.480491 0.598079 0)
)


// edges:

64
(
(0 1)
(2 3)
(1 4)
(5 2)
(4 6)
(7 5)
(6 8)
(9 7)
(8 10)
(11 9)
(10 12)
(13 11)
(12 14)
(15 13)
(14 16)
(17 15)
(16 18)
(19 17)
(18 20)
(21 19)
(20 22)
(23 21)
(22 24)
(25 23)
(24 26)
(27 25)
(26 28)
(29 27)
(28 30)
(31 29)
(30 32)
(33 31)
(32 34)
(35 33)
(34 36)
(37 35)
(36 38)
(39 37)
(38 40)
(41 39)
(40 42)
(43 41)
(42 44)
(45 43)
(44 46)
(47 45)
(46 48)
(49 47)
(48 50)
(51 49)
(50 52)
(53 51)
(52 54)
(55 53)
(54 56)
(57 55)
(56 58)
(59 57)
(58 60)
(61 59)
(62 60)
(0 62)
(63 61)
(3 63)
)

// * * * * * * * * * * * * * * * * * * * * * * * * * * * * * * * * * * * * * //


// ************************************************************************* //
