/*--------------------------------*- C++ -*----------------------------------*\
| =========                 |                                                 |
| \\      /  F ield         | OpenFOAM: The Open Source CFD Toolbox           |
|  \\    /   O peration     | Version:  2312                                  |
|   \\  /    A nd           | Website:  www.openfoam.com                      |
|    \\/     M anipulation  |                                                 |
\*---------------------------------------------------------------------------*/
FoamFile
{
    version     2.0;
    format      ascii;
    arch        "LSB;label=32;scalar=64";
    class       featureEdgeMesh;
    location    "constant/triSurface";
    object      cylinder.eMesh;
}
// * * * * * * * * * * * * * * * * * * * * * * * * * * * * * * * * * * * * * //


// points:

64
(
(5e-07 6e-07 1e-06)
(5.19509e-07 5.98079e-07 1e-06)
(5.19509e-07 5.98079e-07 0)
(5e-07 6e-07 0)
(5.38268e-07 5.92388e-07 1e-06)
(5.38268e-07 5.92388e-07 0)
(5.55557e-07 5.83147e-07 1e-06)
(5.55557e-07 5.83147e-07 0)
(5.70711e-07 5.70711e-07 1e-06)
(5.70711e-07 5.70711e-07 0)
(5.83147e-07 5.55557e-07 1e-06)
(5.83147e-07 5.55557e-07 0)
(5.92388e-07 5.38268e-07 1e-06)
(5.92388e-07 5.38268e-07 0)
(5.98079e-07 5.19509e-07 1e-06)
(5.98079e-07 5.19509e-07 0)
(6e-07 5e-07 1e-06)
(6e-07 5e-07 0)
(5.98079e-07 4.80491e-07 1e-06)
(5.98079e-07 4.80491e-07 0)
(5.92388e-07 4.61732e-07 1e-06)
(5.92388e-07 4.61732e-07 0)
(5.83147e-07 4.44443e-07 1e-06)
(5.83147e-07 4.44443e-07 0)
(5.70711e-07 4.29289e-07 1e-06)
(5.70711e-07 4.29289e-07 0)
(5.55557e-07 4.16853e-07 1e-06)
(5.55557e-07 4.16853e-07 0)
(5.38268e-07 4.07612e-07 1e-06)
(5.38268e-07 4.07612e-07 0)
(5.19509e-07 4.01921e-07 1e-06)
(5.19509e-07 4.01921e-07 0)
(5e-07 4e-07 1e-06)
(5e-07 4e-07 0)
(4.80491e-07 4.01921e-07 1e-06)
(4.80491e-07 4.01921e-07 0)
(4.61732e-07 4.07612e-07 1e-06)
(4.61732e-07 4.07612e-07 0)
(4.44443e-07 4.16853e-07 1e-06)
(4.44443e-07 4.16853e-07 0)
(4.29289e-07 4.29289e-07 1e-06)
(4.29289e-07 4.29289e-07 0)
(4.16853e-07 4.44443e-07 1e-06)
(4.16853e-07 4.44443e-07 0)
(4.07612e-07 4.61732e-07 1e-06)
(4.07612e-07 4.61732e-07 0)
(4.01921e-07 4.80491e-07 1e-06)
(4.01921e-07 4.80491e-07 0)
(4e-07 5e-07 1e-06)
(4e-07 5e-07 0)
(4.01921e-07 5.19509e-07 1e-06)
(4.01921e-07 5.19509e-07 0)
(4.07612e-07 5.38268e-07 1e-06)
(4.07612e-07 5.38268e-07 0)
(4.16853e-07 5.55557e-07 1e-06)
(4.16853e-07 5.55557e-07 0)
(4.29289e-07 5.70711e-07 1e-06)
(4.29289e-07 5.70711e-07 0)
(4.44443e-07 5.83147e-07 1e-06)
(4.44443e-07 5.83147e-07 0)
(4.61732e-07 5.92388e-07 1e-06)
(4.61732e-07 5.92388e-07 0)
(4.80491e-07 5.98079e-07 1e-06)
(4.80491e-07 5.98079e-07 0)
)


// edges:

64
(
(0 1)
(2 3)
(1 4)
(5 2)
(4 6)
(7 5)
(6 8)
(9 7)
(8 10)
(11 9)
(10 12)
(13 11)
(12 14)
(15 13)
(14 16)
(17 15)
(16 18)
(19 17)
(18 20)
(21 19)
(20 22)
(23 21)
(22 24)
(25 23)
(24 26)
(27 25)
(26 28)
(29 27)
(28 30)
(31 29)
(30 32)
(33 31)
(32 34)
(35 33)
(34 36)
(37 35)
(36 38)
(39 37)
(38 40)
(41 39)
(40 42)
(43 41)
(42 44)
(45 43)
(44 46)
(47 45)
(46 48)
(49 47)
(48 50)
(51 49)
(50 52)
(53 51)
(52 54)
(55 53)
(54 56)
(57 55)
(56 58)
(59 57)
(58 60)
(61 59)
(62 60)
(0 62)
(63 61)
(3 63)
)

// * * * * * * * * * * * * * * * * * * * * * * * * * * * * * * * * * * * * * //


// ************************************************************************* //
