/*--------------------------------*- C++ -*----------------------------------*\
| =========                 |                                                 |
| \\      /  F ield         | OpenFOAM: The Open Source CFD Toolbox           |
|  \\    /   O peration     | Version:  2312                                  |
|   \\  /    A nd           | Website:  www.openfoam.com                      |
|    \\/     M anipulation  |                                                 |
\*---------------------------------------------------------------------------*/
FoamFile
{
    version     2.0;
    format      ascii;
    arch        "LSB;label=32;scalar=64";
    class       extendedFeatureEdgeMesh;
    location    "constant/extendedFeatureEdgeMesh";
    object      cylinder.extendedFeatureEdgeMesh;
}
// * * * * * * * * * * * * * * * * * * * * * * * * * * * * * * * * * * * * * //

// points

64
(
(5e-07 6e-07 1e-06)
(5.19509e-07 5.98079e-07 1e-06)
(5.19509e-07 5.98079e-07 0)
(5e-07 6e-07 0)
(5.38268e-07 5.92388e-07 1e-06)
(5.38268e-07 5.92388e-07 0)
(5.55557e-07 5.83147e-07 1e-06)
(5.55557e-07 5.83147e-07 0)
(5.70711e-07 5.70711e-07 1e-06)
(5.70711e-07 5.70711e-07 0)
(5.83147e-07 5.55557e-07 1e-06)
(5.83147e-07 5.55557e-07 0)
(5.92388e-07 5.38268e-07 1e-06)
(5.92388e-07 5.38268e-07 0)
(5.98079e-07 5.19509e-07 1e-06)
(5.98079e-07 5.19509e-07 0)
(6e-07 5e-07 1e-06)
(6e-07 5e-07 0)
(5.98079e-07 4.80491e-07 1e-06)
(5.98079e-07 4.80491e-07 0)
(5.92388e-07 4.61732e-07 1e-06)
(5.92388e-07 4.61732e-07 0)
(5.83147e-07 4.44443e-07 1e-06)
(5.83147e-07 4.44443e-07 0)
(5.70711e-07 4.29289e-07 1e-06)
(5.70711e-07 4.29289e-07 0)
(5.55557e-07 4.16853e-07 1e-06)
(5.55557e-07 4.16853e-07 0)
(5.38268e-07 4.07612e-07 1e-06)
(5.38268e-07 4.07612e-07 0)
(5.19509e-07 4.01921e-07 1e-06)
(5.19509e-07 4.01921e-07 0)
(5e-07 4e-07 1e-06)
(5e-07 4e-07 0)
(4.80491e-07 4.01921e-07 1e-06)
(4.80491e-07 4.01921e-07 0)
(4.61732e-07 4.07612e-07 1e-06)
(4.61732e-07 4.07612e-07 0)
(4.44443e-07 4.16853e-07 1e-06)
(4.44443e-07 4.16853e-07 0)
(4.29289e-07 4.29289e-07 1e-06)
(4.29289e-07 4.29289e-07 0)
(4.16853e-07 4.44443e-07 1e-06)
(4.16853e-07 4.44443e-07 0)
(4.07612e-07 4.61732e-07 1e-06)
(4.07612e-07 4.61732e-07 0)
(4.01921e-07 4.80491e-07 1e-06)
(4.01921e-07 4.80491e-07 0)
(4e-07 5e-07 1e-06)
(4e-07 5e-07 0)
(4.01921e-07 5.19509e-07 1e-06)
(4.01921e-07 5.19509e-07 0)
(4.07612e-07 5.38268e-07 1e-06)
(4.07612e-07 5.38268e-07 0)
(4.16853e-07 5.55557e-07 1e-06)
(4.16853e-07 5.55557e-07 0)
(4.29289e-07 5.70711e-07 1e-06)
(4.29289e-07 5.70711e-07 0)
(4.44443e-07 5.83147e-07 1e-06)
(4.44443e-07 5.83147e-07 0)
(4.61732e-07 5.92388e-07 1e-06)
(4.61732e-07 5.92388e-07 0)
(4.80491e-07 5.98079e-07 1e-06)
(4.80491e-07 5.98079e-07 0)
)

// edges

64
(
(0 1)
(2 3)
(1 4)
(5 2)
(4 6)
(7 5)
(6 8)
(9 7)
(8 10)
(11 9)
(10 12)
(13 11)
(12 14)
(15 13)
(14 16)
(17 15)
(16 18)
(19 17)
(18 20)
(21 19)
(20 22)
(23 21)
(22 24)
(25 23)
(24 26)
(27 25)
(26 28)
(29 27)
(28 30)
(31 29)
(30 32)
(33 31)
(32 34)
(35 33)
(34 36)
(37 35)
(36 38)
(39 37)
(38 40)
(41 39)
(40 42)
(43 41)
(42 44)
(45 43)
(44 46)
(47 45)
(46 48)
(49 47)
(48 50)
(51 49)
(50 52)
(53 51)
(52 54)
(55 53)
(54 56)
(57 55)
(56 58)
(59 57)
(58 60)
(61 59)
(62 60)
(0 62)
(63 61)
(3 63)
)

// concaveStart mixedStart nonFeatureStart
0 0 0
// internalStart flatStart openStart multipleStart
64 64 64 64
// normals

96
(
(0.0980173 0.995185 -0)
(0 0 1)
(0.0980173 0.995185 0)
(0 0 -1)
(0.290286 0.95694 -0)
(0.290286 0.95694 0)
(0 0 -1)
(0.471397 0.881921 -0)
(0 0 1)
(0.471397 0.881921 0)
(0.634394 0.77301 -0)
(0.634394 0.77301 0)
(0 0 -1)
(0.77301 0.634394 -0)
(0 0 1)
(0.77301 0.634394 0)
(0.881921 0.471397 -0)
(0.881921 0.471397 0)
(0 0 -1)
(0.95694 0.290286 -0)
(0 0 1)
(0.95694 0.290286 0)
(0.995185 0.0980173 -0)
(0.995185 0.0980173 0)
(0 0 -1)
(0.995185 -0.0980173 0)
(0 0 1)
(0.995185 -0.0980173 0)
(0.95694 -0.290286 0)
(0.95694 -0.290286 0)
(0 0 -1)
(0.881921 -0.471396 0)
(0 0 1)
(0.881921 -0.471396 0)
(0.77301 -0.634394 0)
(0.77301 -0.634394 0)
(0 0 -1)
(0.634393 -0.77301 0)
(0 0 1)
(0.634393 -0.77301 0)
(0.471397 -0.881921 0)
(0.471397 -0.881921 0)
(0 0 -1)
(0.290285 -0.95694 0)
(0 0 1)
(0.290285 -0.95694 0)
(0.0980173 -0.995185 0)
(0.0980173 -0.995185 0)
(-0 0 -1)
(-0.0980173 -0.995185 0)
(0 0 1)
(-0.0980173 -0.995185 0)
(-0.290285 -0.95694 0)
(-0.290285 -0.95694 0)
(0 0 -1)
(-0.471396 -0.881921 0)
(0 0 1)
(-0.471396 -0.881921 0)
(-0.634393 -0.77301 0)
(-0.634393 -0.77301 0)
(0 0 -1)
(-0.77301 -0.634393 0)
(0 0 1)
(-0.77301 -0.634393 0)
(-0.881921 -0.471396 0)
(-0.881921 -0.471396 0)
(0 0 -1)
(-0.95694 -0.290285 0)
(0 0 1)
(-0.95694 -0.290285 0)
(-0.995185 -0.0980173 0)
(-0.995185 -0.0980173 0)
(0 0 -1)
(-0.995185 0.0980173 0)
(0 0 1)
(-0.995185 0.0980173 0)
(-0.95694 0.290285 0)
(-0.95694 0.290285 0)
(0 0 -1)
(-0.881921 0.471397 0)
(0 0 1)
(-0.881921 0.471397 0)
(-0.77301 0.634393 0)
(-0.77301 0.634393 0)
(0 0 -1)
(-0.634394 0.77301 0)
(0 0 1)
(-0.634394 0.77301 0)
(-0.471396 0.881921 0)
(-0.471396 0.881921 0)
(0 0 -1)
(0 0 1)
(-0.290286 0.95694 0)
(-0.0980173 0.995185 0)
(-0.290286 0.95694 0)
(-0.0980173 0.995185 0)
)

// normal volume types

96
(
0
0
0
0
0
0
0
0
0
0
0
0
0
0
0
0
0
0
0
0
0
0
0
0
0
0
0
0
0
0
0
0
0
0
0
0
0
0
0
0
0
0
0
0
0
0
0
0
0
0
0
0
0
0
0
0
0
0
0
0
0
0
0
0
0
0
0
0
0
0
0
0
0
0
0
0
0
0
0
0
0
0
0
0
0
0
0
0
0
0
0
0
0
0
0
0
)

// normalDirections

64
(
2(1 -1)
2(1 -1)
2(1 -1)
2(1 -1)
2(1 -1)
2(1 -1)
2(1 -1)
2(1 -1)
2(1 -1)
2(1 -1)
2(1 -1)
2(1 -1)
2(1 -1)
2(1 -1)
2(1 -1)
2(1 -1)
2(1 -1)
2(1 -1)
2(1 -1)
2(1 -1)
2(1 -1)
2(1 -1)
2(1 -1)
2(1 -1)
2(1 -1)
2(1 -1)
2(1 -1)
2(1 -1)
2(1 -1)
2(1 -1)
2(1 -1)
2(1 -1)
2(1 -1)
2(1 -1)
2(1 -1)
2(1 -1)
2(1 -1)
2(1 -1)
2(1 -1)
2(1 -1)
2(1 -1)
2(1 -1)
2(1 -1)
2(1 -1)
2(1 -1)
2(1 -1)
2(1 -1)
2(1 -1)
2(1 -1)
2(1 -1)
2(1 -1)
2(1 -1)
2(1 -1)
2(1 -1)
2(1 -1)
2(1 -1)
2(1 -1)
2(1 -1)
2(1 -1)
2(1 -1)
2(1 -1)
2(1 -1)
2(1 -1)
2(1 -1)
)

// edgeNormals

64
(
2(0 1)
2(2 3)
2(4 1)
2(5 6)
2(7 8)
2(9 6)
2(10 8)
2(11 12)
2(13 14)
2(15 12)
2(16 14)
2(17 18)
2(19 20)
2(21 18)
2(22 20)
2(23 24)
2(25 26)
2(27 24)
2(28 26)
2(29 30)
2(31 32)
2(33 30)
2(34 32)
2(35 36)
2(37 38)
2(39 36)
2(40 38)
2(41 42)
2(43 44)
2(45 42)
2(46 44)
2(47 48)
2(49 50)
2(51 48)
2(52 50)
2(53 54)
2(55 56)
2(57 54)
2(58 56)
2(59 60)
2(61 62)
2(63 60)
2(64 62)
2(65 66)
2(67 68)
2(69 66)
2(70 68)
2(71 72)
2(73 74)
2(75 72)
2(76 74)
2(77 78)
2(79 80)
2(81 78)
2(82 80)
2(83 84)
2(85 86)
2(87 84)
2(88 86)
2(89 90)
2(91 92)
2(91 93)
2(94 90)
2(95 3)
)

// featurePointNormals
0()
// featurePointEdges
0()
// regionEdges
0()


// ************************************************************************* //
